Measurement: Infrared, Infrared Data Processed
Mineral: Graphite
Rruff sample: R050503
Ideal chemistry: C
Locality: Sterling mine, Ogdensburg, New Jersey, USA
Source: Marcus Origlieri
Description: Black hexagonal platy crystals
x	intensity
399.193	0.0947741
408.835	0.0949036
418.477	0.0917375
428.12	0.0924659
437.762	0.0956694
447.404	0.0926013
457.047	0.0951456
466.689	0.0985939
476.331	0.0992797
485.974	0.101102
495.616	0.10372
505.258	0.103649
514.901	0.104348
524.543	0.105637
534.185	0.109237
543.828	0.113568
553.47	0.11896
563.112	0.117491
572.755	0.114031
582.397	0.115668
592.039	0.115225
601.682	0.116181
611.324	0.116966
620.966	0.118704
630.609	0.119543
640.251	0.120712
649.893	0.122762
659.536	0.124029
669.178	0.1254
678.82	0.127133
688.463	0.128401
698.105	0.130944
707.747	0.13285
717.39	0.132994
727.032	0.134494
736.674	0.13594
746.317	0.137675
755.959	0.141568
765.601	0.143631
775.244	0.143677
784.886	0.143599
794.528	0.144561
804.171	0.148101
813.813	0.153554
823.455	0.156124
833.098	0.157576
842.74	0.154451
852.382	0.152609
862.025	0.152388
871.667	0.155617
881.309	0.157487
890.952	0.158694
900.594	0.156786
910.236	0.158439
919.879	0.16013
929.521	0.16147
939.163	0.163147
948.806	0.164039
958.448	0.165771
968.09	0.167556
977.733	0.168746
987.375	0.172019
997.017	0.17518
1006.66	0.182079
1016.3	0.185526
1025.94	0.175557
1035.59	0.177026
1045.23	0.178619
1054.87	0.180673
1064.51	0.183101
1074.16	0.188484
1083.8	0.190427
1093.44	0.187557
1103.08	0.192503
1112.72	0.192617
1122.37	0.194687
1132.01	0.198862
1141.65	0.206181
1151.3	0.215049
1160.94	0.217122
1170.58	0.205889
1180.22	0.214633
1189.86	0.220396
1199.51	0.213826
1209.15	0.21151
1218.79	0.220045
1228.43	0.219783
1238.08	0.217681
1247.72	0.21555
1257.36	0.209989
1267	0.206793
1276.64	0.20639
1286.29	0.208019
1295.93	0.209018
1305.57	0.209432
1315.21	0.209934
1324.86	0.21063
1334.5	0.212113
1344.14	0.213543
1353.78	0.214621
1363.43	0.217839
1373.07	0.217116
1382.71	0.21937
1392.35	0.220688
1401.99	0.222525
1411.64	0.224245
1421.28	0.224043
1430.92	0.225856
1440.57	0.226954
1450.21	0.228986
1459.85	0.229801
1469.49	0.231363
1479.13	0.23298
1488.78	0.236245
1498.42	0.24184
1508.06	0.243642
1517.7	0.238343
1527.35	0.238367
1536.99	0.239316
1546.63	0.239841
1556.27	0.241122
1565.91	0.241833
1575.56	0.242707
1585.2	0.243109
1594.84	0.246484
1604.48	0.247829
1614.13	0.249043
1623.77	0.250064
1633.41	0.251957
1643.05	0.252833
1652.7	0.254636
1662.34	0.254991
1671.98	0.256135
1681.62	0.257384
1691.27	0.258276
1700.91	0.260005
1710.55	0.260293
1720.19	0.261742
1729.84	0.262578
1739.48	0.26317
1749.12	0.264469
1758.76	0.270151
1768.4	0.279907
1778.05	0.277371
1787.69	0.273715
1797.33	0.271405
1806.97	0.271115
1816.62	0.272084
1826.26	0.27234
1835.9	0.273465
1845.54	0.274925
1855.18	0.27636
1864.83	0.277117
1874.47	0.278569
1884.11	0.280366
1893.75	0.28141
1903.4	0.281624
1913.04	0.282526
1922.68	0.281064
1932.32	0.282519
1941.97	0.280834
1951.61	0.282201
1961.25	0.281599
1970.89	0.283706
1980.54	0.287116
1990.18	0.285383
1999.82	0.290054
2009.46	0.289783
2019.11	0.289661
2028.75	0.2909
2038.39	0.290508
2048.03	0.298248
2057.67	0.300788
2067.32	0.299507
2076.96	0.302439
2086.6	0.307984
2096.24	0.307405
2105.89	0.307476
2115.53	0.310148
2125.17	0.309395
2134.81	0.311027
2144.45	0.30822
2154.1	0.305473
2163.74	0.310458
2173.38	0.308175
2183.02	0.309543
2192.67	0.317173
2202.31	0.317614
2211.95	0.320784
2221.59	0.321802
2231.24	0.325777
2240.88	0.328228
2250.52	0.327776
2260.16	0.330649
2269.8	0.332794
2279.45	0.334267
2289.09	0.33881
2298.73	0.339174
2308.38	0.342744
2318.02	0.344357
2327.66	0.345765
2337.3	0.347202
2346.94	0.348649
2356.59	0.34858
2366.23	0.349996
2375.87	0.350725
2385.51	0.352913
2395.16	0.353972
2404.8	0.356056
2414.44	0.357232
2424.08	0.357194
2433.72	0.360238
2443.37	0.360802
2453.01	0.361779
2462.65	0.364296
2472.29	0.36569
2481.94	0.366998
2491.58	0.367037
2501.22	0.368535
2510.86	0.372339
2520.51	0.37048
2530.15	0.372235
2539.79	0.377265
2549.43	0.378689
2559.07	0.379294
2568.72	0.379383
2578.36	0.380329
2588	0.383592
2597.64	0.383286
2607.29	0.385596
2616.93	0.388591
2626.57	0.391247
2636.21	0.392865
2645.86	0.393917
2655.5	0.395184
2665.14	0.396121
2674.78	0.397298
2684.43	0.398956
2694.07	0.400617
2703.71	0.401713
2713.35	0.402332
2722.99	0.405855
2732.64	0.406035
2742.28	0.407083
2751.92	0.409372
2761.56	0.40922
2771.21	0.412871
2780.85	0.41297
2790.49	0.414106
2800.13	0.4166
2809.78	0.418453
2819.42	0.418943
2829.06	0.420678
2838.7	0.422515
2848.34	0.421997
2857.99	0.424619
2867.63	0.424555
2877.27	0.427455
2886.91	0.428239
2896.56	0.428436
2906.2	0.431392
2915.84	0.430783
2925.48	0.43276
2935.13	0.434042
2944.77	0.434247
2954.41	0.437464
2964.05	0.43943
2973.7	0.443857
2983.34	0.441776
2992.98	0.444297
3002.62	0.441402
3012.26	0.445117
3021.91	0.447595
3031.55	0.447543
3041.19	0.450911
3050.83	0.451474
3060.48	0.455306
3070.12	0.454751
3079.76	0.45418
3089.4	0.454259
3099.05	0.457088
3108.69	0.46039
3118.33	0.459813
3127.97	0.46183
3137.61	0.46567
3147.26	0.465026
3156.9	0.466488
3166.54	0.469038
3176.18	0.471506
3185.83	0.471662
3195.47	0.47426
3205.11	0.473269
3214.75	0.472707
3224.4	0.476609
3234.04	0.480242
3243.68	0.480161
3253.32	0.481259
3262.97	0.482087
3272.61	0.485356
3282.25	0.483232
3291.89	0.487297
3301.53	0.486489
3311.18	0.489992
3320.82	0.48887
3330.46	0.493874
3340.1	0.487986
3349.75	0.492835
3359.39	0.495643
3369.03	0.492387
3378.67	0.493995
3388.32	0.497782
3397.96	0.4994
3407.6	0.504797
3417.24	0.500236
3426.89	0.508522
3436.53	0.50533
3446.17	0.50913
3455.81	0.510106
3465.45	0.512793
3475.1	0.512795
3484.74	0.513813
3494.38	0.514601
3504.02	0.51722
3513.67	0.517132
3523.31	0.517744
3532.95	0.519738
3542.59	0.524415
3552.24	0.520978
3561.88	0.526773
3571.52	0.525351
3581.16	0.531671
3590.8	0.53185
3600.45	0.528871
3610.09	0.530641
3619.73	0.529958
3629.37	0.535455
3639.02	0.534369
3648.66	0.541334
3658.3	0.543956
3667.94	0.54193
3677.59	0.542982
3687.23	0.548036
3696.87	0.544949
3706.51	0.549785
3716.16	0.543569
3725.8	0.548648
3735.44	0.553556
3745.08	0.558877
3754.72	0.559288
3764.37	0.550584
3774.01	0.561014
3783.65	0.558373
3793.29	0.561116
3802.94	0.565804
3812.58	0.567268
3822.22	0.56734
3831.86	0.569524
3841.51	0.565799
3851.15	0.569297
3860.79	0.568413
3870.43	0.567057
3880.07	0.57025
3889.72	0.574378
3899.36	0.571742
3909	0.574746
3918.64	0.579731
3928.29	0.577512
3937.93	0.580622
3947.57	0.581327
3957.21	0.584836
3966.86	0.581329
3976.5	0.592008
3986.14	0.58458
3995.78	0.588334
