Measurement: Infrared, Infrared Data Processed
Mineral: Magnesite
Rruff sample: R040114
Ideal chemistry: MgCO_3_
Locality: Snarum, Norway
Source: University of Arizona Mineral Museum
Description: Tan colored cleavage fragment
Measured chemistry: (Mg_0.98_Fe_0.01_)C_1.00_O_3_
x	intensity
399.193	0
408.835	0.182135
418.477	0.159464
428.12	0.138304
437.762	0.124324
447.404	0.1115
457.047	0.0949353
466.689	0.0776341
476.331	0.0562457
485.974	0.0498489
495.616	0.0477612
505.258	0.0396932
514.901	0.0390962
524.543	0.041483
534.185	0.0471757
543.828	0.0542214
553.47	0.0639034
563.112	0.07549
572.755	0.0862132
582.397	0.0971762
592.039	0.11127
601.682	0.123764
611.324	0.132558
620.966	0.130696
630.609	0.121956
640.251	0.136523
649.893	0.142515
659.536	0.140703
669.178	0.136344
678.82	0.131575
688.463	0.127508
698.105	0.122597
707.747	0.11823
717.39	0.11514
727.032	0.114141
736.674	0.120751
746.317	0.180149
755.959	0.094293
765.601	0.083378
775.244	0.0810343
784.886	0.0799393
794.528	0.0788612
804.171	0.0773688
813.813	0.075748
823.455	0.073635
833.098	0.0723
842.74	0.0708813
852.382	0.0747121
862.025	0.0768715
871.667	0.141661
881.309	0.232238
890.952	0.165198
900.594	0.0574108
910.236	0.024991
919.879	0.0236561
929.521	0.0234277
939.163	0.023657
948.806	0.0247437
958.448	0.026499
968.09	0.0283521
977.733	0.0293877
987.375	0.0307162
997.017	0.0320541
1006.66	0.033454
1016.3	0.0346114
1025.94	0.034257
1035.59	0.0332716
1045.23	0.0324123
1054.87	0.031947
1064.51	0.031454
1074.16	0.0316609
1083.8	0.0325963
1093.44	0.0326889
1103.08	0.0321834
1112.72	0.0312892
1122.37	0.0304675
1132.01	0.0308792
1141.65	0.0305673
1151.3	0.0306894
1160.94	0.0308109
1170.58	0.0318967
1180.22	0.0333325
1189.86	0.0352184
1199.51	0.0369481
1209.15	0.0395317
1218.79	0.0423943
1228.43	0.0450827
1238.08	0.0476991
1247.72	0.0513108
1257.36	0.0545039
1267	0.0578622
1276.64	0.0638153
1286.29	0.0710247
1295.93	0.0802503
1305.57	0.0914313
1315.21	0.104635
1324.86	0.121227
1334.5	0.141674
1344.14	0.167797
1353.78	0.199306
1363.43	0.233597
1373.07	0.266022
1382.71	0.307466
1392.35	0.364161
1401.99	0.433177
1411.64	0.513062
1421.28	0.564578
1430.92	0.610021
1440.57	0.580159
1450.21	0.523599
1459.85	0.468901
1469.49	0.416801
1479.13	0.371919
1488.78	0.329094
1498.42	0.290502
1508.06	0.25466
1517.7	0.220318
1527.35	0.185702
1536.99	0.153117
1546.63	0.124942
1556.27	0.0972186
1565.91	0.0741913
1575.56	0.0495339
1585.2	0.0270756
1594.84	0.0128263
1604.48	0.0110728
1614.13	0.0105601
1623.77	0.0105178
1633.41	0.00968628
1643.05	0.00899127
1652.7	0.00476998
1662.34	0.0055657
1671.98	0.00521436
1681.62	0.0048521
1691.27	0.00511289
1700.91	0.0048463
1710.55	0.00361814
1720.19	0.00317898
1729.84	0.00238872
1739.48	0.00146771
1749.12	0.00129851
1758.76	0.00218952
1768.4	0.00265985
1778.05	0.00306618
1787.69	0.00373173
1797.33	0.00519924
1806.97	0.00677399
1816.62	0.00881747
1826.26	0.0109322
1835.9	0.00970948
1845.54	0.00751195
1855.18	0.00496628
1864.83	0.00370727
1874.47	0.00264781
1884.11	0.0026367
1893.75	0.00295112
1903.4	0.00281935
1913.04	0.00212984
1922.68	0.00271819
1932.32	0.00308178
1941.97	0.00291141
1951.61	0.00160299
1961.25	0.00176979
1970.89	0.00120013
1980.54	0.00312501
1990.18	0.00396395
1999.82	0.00113337
2009.46	0.00202018
2019.11	0.00177417
2028.75	0.000834775
2038.39	4.29179e-05
2048.03	0.00161937
2057.67	0.00244148
2067.32	0.0037506
2076.96	0.00219069
2086.6	0.00206298
2096.24	0.00191773
2105.89	0.00182962
2115.53	0.0035489
2125.17	0.00146095
2134.81	0.00179639
2144.45	0.000515259
2154.1	-0.000696337
2163.74	0.0058343
2173.38	0.00514829
2183.02	0.00519893
2192.67	0.0033991
2202.31	0.00657786
2211.95	0.00520934
2221.59	0.0037161
2231.24	0.00395313
2240.88	0.00539165
2250.52	0.00541419
2260.16	0.00444681
2269.8	0.004398
2279.45	0.00587663
2289.09	0.00579777
2298.73	0.00532107
2308.38	0.00528036
2318.02	0.00526782
2327.66	0.00522829
2337.3	0.00523662
2346.94	0.00602167
2356.59	0.00548489
2366.23	0.00589517
2375.87	0.00433941
2385.51	0.00582667
2395.16	0.00532918
2404.8	0.00514345
2414.44	0.00585103
2424.08	0.0056447
2433.72	0.00600001
2443.37	0.00491869
2453.01	0.00675389
2462.65	0.00578093
2472.29	0.00552932
2481.94	0.00623807
2491.58	0.00680793
2501.22	0.00659647
2510.86	0.00925158
2520.51	0.0118618
2530.15	0.0139686
2539.79	0.0141197
2549.43	0.0130359
2559.07	0.0126281
2568.72	0.0113687
2578.36	0.0102144
2588	0.00999551
2597.64	0.00952685
2607.29	0.00860609
2616.93	0.00837574
2626.57	0.0090737
2636.21	0.00850083
2645.86	0.00823546
2655.5	0.00809118
2665.14	0.00718715
2674.78	0.00612911
2684.43	0.00574506
2694.07	0.00562697
2703.71	0.00499583
2713.35	0.00596505
2722.99	0.00561233
2732.64	0.00527372
2742.28	0.0061225
2751.92	0.00503171
2761.56	0.00564359
2771.21	0.00550136
2780.85	0.00512913
2790.49	0.00570774
2800.13	0.00503596
2809.78	0.0055891
2819.42	0.00452052
2829.06	0.00607184
2838.7	0.00558139
2848.34	0.00157105
2857.99	0.00291393
2867.63	0.00558762
2877.27	0.0065089
2886.91	0.00734216
2896.56	0.00746113
2906.2	0.00976788
2915.84	0.00873688
2925.48	0.00697366
2935.13	0.00767558
2944.77	0.00872248
2954.41	0.0103931
2964.05	0.00952373
2973.7	0.00873664
2983.34	0.0086538
2992.98	0.00955715
3002.62	0.01031
3012.26	0.0122177
3021.91	0.0119183
3031.55	0.0110798
3041.19	0.0133026
3050.83	0.0135286
3060.48	0.0145114
3070.12	0.0122136
3079.76	0.0129011
3089.4	0.0151877
3099.05	0.0145851
3108.69	0.0150196
3118.33	0.0172212
3127.97	0.0174392
3137.61	0.0172487
3147.26	0.0186474
3156.9	0.0185145
3166.54	0.0205692
3176.18	0.0208725
3185.83	0.021207
3195.47	0.0215459
3205.11	0.022988
3214.75	0.0222807
3224.4	0.0224502
3234.04	0.0230673
3243.68	0.0232308
3253.32	0.0240613
3262.97	0.0258089
3272.61	0.0251303
3282.25	0.0247878
3291.89	0.0255914
3301.53	0.0261856
3311.18	0.0271613
3320.82	0.0260944
3330.46	0.0269187
3340.1	0.0282895
3349.75	0.0289635
3359.39	0.0297867
3369.03	0.0307797
3378.67	0.0308127
3388.32	0.0298663
3397.96	0.0329945
3407.6	0.0311758
3417.24	0.0323825
3426.89	0.0323957
3436.53	0.0318868
3446.17	0.0343742
3455.81	0.0347286
3465.45	0.0333694
3475.1	0.0329165
3484.74	0.0325325
3494.38	0.0347117
3504.02	0.0340962
3513.67	0.0349184
3523.31	0.0355104
3532.95	0.0339682
3542.59	0.0303608
3552.24	0.0326033
3561.88	0.0310253
3571.52	0.029636
3581.16	0.0295374
3590.8	0.0286326
3600.45	0.0268266
3610.09	0.0273314
3619.73	0.0252525
3629.37	0.02384
3639.02	0.0243937
3648.66	0.0216753
3658.3	0.0235467
3667.94	0.0201768
3677.59	0.0223547
3687.23	0.0201168
3696.87	0.0245141
3706.51	0.0223189
3716.16	0.0236817
3725.8	0.02316
3735.44	0.0204333
3745.08	0.0201745
3754.72	0.0207288
3764.37	0.0217556
3774.01	0.0242721
3783.65	0.0254236
3793.29	0.0232528
3802.94	0.0224334
3812.58	0.0235937
3822.22	0.0230318
3831.86	0.0243358
3841.51	0.0224276
3851.15	0.0213165
3860.79	0.0241124
3870.43	0.0231311
3880.07	0.0264812
3889.72	0.0244896
3899.36	0.0274688
3909	0.0270644
3918.64	0.02741
3928.29	0.0262312
3937.93	0.0238414
3947.57	0.0276768
3957.21	0.0299665
3966.86	0.0264114
3976.5	0.0271751
3986.14	0.0266109
3995.78	0.0304559
