Measurement: Infrared, Infrared Data Processed
Mineral: Magnesite
Rruff sample: R050676
Ideal chemistry: MgCO_3_
Locality: Tyrol, Austria
Source: University of Arizona Mineral Museum
Description: Brown rhombohedral crystals
Measured chemistry: (Mg_0.87_Fe^2+^_0.12_Ca_0.01_)_Î£=1_CO_3_; trace amounts of Mn and Cd; CO_2_ estimated by difference
x	intensity
399.193	0.176595
408.835	0.154168
418.477	0.118055
428.12	0.0963994
437.762	0.0808007
447.404	0.0624377
457.047	0.047274
466.689	0.0348778
476.331	0.0275941
485.974	0.0221567
495.616	0.0190931
505.258	0.0182815
514.901	0.0171611
524.543	0.0161085
534.185	0.0164727
543.828	0.0151641
553.47	0.0156244
563.112	0.0164159
572.755	0.0182681
582.397	0.0164148
592.039	0.01655
601.682	0.0174186
611.324	0.01502
620.966	0.0145635
630.609	0.0146947
640.251	0.0160903
649.893	0.0157614
659.536	0.0164706
669.178	0.0182652
678.82	0.0172042
688.463	0.0173146
698.105	0.0182867
707.747	0.0198462
717.39	0.0230376
727.032	0.0305269
736.674	0.0565198
746.317	0.149235
755.959	0.0297608
765.601	0.0148363
775.244	0.0133919
784.886	0.0146921
794.528	0.0158884
804.171	0.0171628
813.813	0.0200446
823.455	0.0225529
833.098	0.0282811
842.74	0.0406338
852.382	0.0750508
862.025	0.118654
871.667	0.245167
881.309	0.259104
890.952	0.152935
900.594	0.039448
910.236	0.0233094
919.879	0.0229757
929.521	0.0241358
939.163	0.0261717
948.806	0.0280978
958.448	0.0304384
968.09	0.032365
977.733	0.0339871
987.375	0.0368852
997.017	0.0403319
1006.66	0.0462625
1016.3	0.0551496
1025.94	0.0564185
1035.59	0.0542715
1045.23	0.0568924
1054.87	0.0547598
1064.51	0.0529565
1074.16	0.0525086
1083.8	0.0537016
1093.44	0.0564309
1103.08	0.0558909
1112.72	0.0548994
1122.37	0.0559348
1132.01	0.0584568
1141.65	0.0606756
1151.3	0.0633874
1160.94	0.0666721
1170.58	0.069961
1180.22	0.074942
1189.86	0.0787877
1199.51	0.0843696
1209.15	0.0893799
1218.79	0.0951076
1228.43	0.100426
1238.08	0.106777
1247.72	0.11249
1257.36	0.119243
1267	0.127885
1276.64	0.138438
1286.29	0.14959
1295.93	0.162039
1305.57	0.17687
1315.21	0.19269
1324.86	0.210957
1334.5	0.232512
1344.14	0.256924
1353.78	0.284272
1363.43	0.314682
1373.07	0.346754
1382.71	0.385993
1392.35	0.433315
1401.99	0.484378
1411.64	0.527539
1421.28	0.549721
1430.92	0.553535
1440.57	0.513673
1450.21	0.467389
1459.85	0.425109
1469.49	0.385188
1479.13	0.345377
1488.78	0.306545
1498.42	0.272523
1508.06	0.239795
1517.7	0.208192
1527.35	0.177326
1536.99	0.148187
1546.63	0.121822
1556.27	0.097906
1565.91	0.0755527
1575.56	0.0520752
1585.2	0.0256529
1594.84	0.0123556
1604.48	0.0112608
1614.13	0.0107134
1623.77	0.0108048
1633.41	0.00965394
1643.05	0.00802376
1652.7	0.00583815
1662.34	0.00606865
1671.98	0.00570948
1681.62	0.00609118
1691.27	0.00535805
1700.91	0.00512472
1710.55	0.00487611
1720.19	0.00428263
1729.84	0.00438723
1739.48	0.00357119
1749.12	0.00403081
1758.76	0.0039583
1768.4	0.00353751
1778.05	0.00445416
1787.69	0.00615719
1797.33	0.00614412
1806.97	0.00920635
1816.62	0.01182
1826.26	0.0130004
1835.9	0.0125013
1845.54	0.00907266
1855.18	0.00640094
1864.83	0.00523063
1874.47	0.00480866
1884.11	0.00455926
1893.75	0.00612541
1903.4	0.00501972
1913.04	0.00467133
1922.68	0.0057872
1932.32	0.00817718
1941.97	0.00742423
1951.61	0.00832951
1961.25	0.00798146
1970.89	0.00608607
1980.54	0.0113789
1990.18	0.00779045
1999.82	0.00860126
2009.46	0.00528336
2019.11	0.00399129
2028.75	0.00859867
2038.39	0.0130906
2048.03	0.00859728
2057.67	0.00477394
2067.32	0.0092221
2076.96	0.00799961
2086.6	0.00853702
2096.24	0.00739805
2105.89	0.00876258
2115.53	0.00789474
2125.17	0.00653064
2134.81	0.0075276
2144.45	0.00666797
2154.1	0.00544624
2163.74	0.0139029
2173.38	0.0122428
2183.02	0.0136161
2192.67	0.0106984
2202.31	0.00903149
2211.95	0.0115552
2221.59	0.00861358
2231.24	0.00926722
2240.88	0.0110226
2250.52	0.00786532
2260.16	0.00918468
2269.8	0.0085659
2279.45	0.010348
2289.09	0.0105975
2298.73	0.00984312
2308.38	0.0105019
2318.02	0.0102968
2327.66	0.00927938
2337.3	0.00889367
2346.94	0.00933303
2356.59	0.00816619
2366.23	0.00757734
2375.87	0.00912787
2385.51	0.0102584
2395.16	0.00965916
2404.8	0.0102407
2414.44	0.0120242
2424.08	0.0095161
2433.72	0.0111744
2443.37	0.0101136
2453.01	0.0109463
2462.65	0.0114248
2472.29	0.0100024
2481.94	0.0112776
2491.58	0.0109058
2501.22	0.0139605
2510.86	0.0161888
2520.51	0.019083
2530.15	0.0193071
2539.79	0.0220434
2549.43	0.0175935
2559.07	0.0155326
2568.72	0.016008
2578.36	0.0150556
2588	0.0159228
2597.64	0.0146293
2607.29	0.0155475
2616.93	0.0148401
2626.57	0.014949
2636.21	0.0152896
2645.86	0.0141235
2655.5	0.0136949
2665.14	0.0117674
2674.78	0.0123909
2684.43	0.0114133
2694.07	0.0125504
2703.71	0.012156
2713.35	0.0126271
2722.99	0.0111673
2732.64	0.0108078
2742.28	0.0117385
2751.92	0.0124142
2761.56	0.011748
2771.21	0.0111117
2780.85	0.012014
2790.49	0.0115165
2800.13	0.0132309
2809.78	0.0126795
2819.42	0.012359
2829.06	0.0120287
2838.7	0.0139132
2848.34	0.0129642
2857.99	0.0133769
2867.63	0.0145349
2877.27	0.0169223
2886.91	0.0159335
2896.56	0.0156674
2906.2	0.0182104
2915.84	0.0181596
2925.48	0.0206502
2935.13	0.0184824
2944.77	0.017455
2954.41	0.0178215
2964.05	0.0180387
2973.7	0.0181397
2983.34	0.0184521
2992.98	0.0185883
3002.62	0.019619
3012.26	0.0190465
3021.91	0.0211529
3031.55	0.0199295
3041.19	0.0212657
3050.83	0.0222395
3060.48	0.0205887
3070.12	0.0198561
3079.76	0.0200443
3089.4	0.0221013
3099.05	0.0237864
3108.69	0.0230067
3118.33	0.0218621
3127.97	0.0206118
3137.61	0.0240935
3147.26	0.0249063
3156.9	0.0251305
3166.54	0.0254447
3176.18	0.0258332
3185.83	0.0275631
3195.47	0.0292532
3205.11	0.0283629
3214.75	0.0266423
3224.4	0.0273826
3234.04	0.0275569
3243.68	0.0276278
3253.32	0.029181
3262.97	0.0298711
3272.61	0.029409
3282.25	0.0299946
3291.89	0.030251
3301.53	0.0285501
3311.18	0.0293154
3320.82	0.0299506
3330.46	0.0277735
3340.1	0.0304785
3349.75	0.0304503
3359.39	0.0300515
3369.03	0.0269812
3378.67	0.0292615
3388.32	0.030181
3397.96	0.0296216
3407.6	0.0303924
3417.24	0.0276494
3426.89	0.0295809
3436.53	0.0306462
3446.17	0.0291545
3455.81	0.0302943
3465.45	0.0313187
3475.1	0.0302597
3484.74	0.0299743
3494.38	0.030643
3504.02	0.0296248
3513.67	0.0297964
3523.31	0.0296974
3532.95	0.0313881
3542.59	0.0262345
3552.24	0.0332408
3561.88	0.0311717
3571.52	0.0309245
3581.16	0.0309399
3590.8	0.033125
3600.45	0.030111
3610.09	0.0267783
3619.73	0.0280258
3629.37	0.0280306
3639.02	0.025895
3648.66	0.0311758
3658.3	0.0250952
3667.94	0.0273242
3677.59	0.0277247
3687.23	0.0239845
3696.87	0.0277406
3706.51	0.0305688
3716.16	0.0259452
3725.8	0.0266842
3735.44	0.0255528
3745.08	0.0248165
3754.72	0.0293404
3764.37	0.0268745
3774.01	0.0286321
3783.65	0.0286738
3793.29	0.0216141
3802.94	0.0246559
3812.58	0.0280247
3822.22	0.0272266
3831.86	0.0244358
3841.51	0.0266054
3851.15	0.0286611
3860.79	0.0237879
3870.43	0.0272746
3880.07	0.0284366
3889.72	0.0233077
3899.36	0.0206051
3909	0.0245561
3918.64	0.0264057
3928.29	0.0234406
3937.93	0.0245038
3947.57	0.0236835
3957.21	0.0258379
3966.86	0.0245163
3976.5	0.0259931
3986.14	0.0230467
3995.78	0.0264636
