Measurement: Infrared, Infrared Data Processed
Mineral: Nahcolite
Rruff sample: R070237
Ideal chemistry: NaHCO_3_
Locality: Bureau of Mines Oil Shale Mine, East Rifle Creek area, Garfield County, Colorado, USA
Source: Michael Scott
Description: Clear, colorless to brownish, massive
Measured chemistry: Na_1.00_HCO_3_ ; H and C not analyzed but assumed by stoichiometry
x	intensity
374.123	0.0102547
383.765	0.0211894
393.407	0.0188983
403.05	0.0125492
412.692	0.0136091
422.334	0.0114058
431.976	0.011118
441.619	0.0120998
451.261	0.0125516
460.904	0.0114801
470.546	0.0134501
480.188	0.0136273
489.83	0.0146613
499.473	0.0148864
509.115	0.0162054
518.758	0.0171375
528.4	0.018478
538.042	0.0197558
547.684	0.0208541
557.327	0.0219916
566.969	0.0237211
576.611	0.0261462
586.254	0.0287817
595.896	0.0314834
605.538	0.0354586
615.181	0.0398671
624.823	0.0455185
634.466	0.0539895
644.108	0.0711131
653.75	0.104465
663.393	0.0736133
673.035	0.111722
682.677	0.176705
692.319	0.22504
701.962	0.171304
711.604	0.104156
721.246	0.0426914
730.889	0.0171677
740.531	0.012511
750.173	0.0118717
759.816	0.012936
769.458	0.0153037
779.101	0.0182406
788.743	0.0233428
798.385	0.0334721
808.028	0.058271
817.67	0.0898227
827.312	0.180622
836.955	0.195176
846.597	0.0564441
856.239	0.031371
865.881	0.029994
875.524	0.0312592
885.166	0.0342436
894.808	0.037869
904.451	0.0414963
914.093	0.0446389
923.736	0.0488859
933.378	0.0540404
943.02	0.0606869
952.663	0.0725659
962.305	0.0947745
971.947	0.137514
981.59	0.19405
991.232	0.231566
1000.87	0.208269
1010.52	0.146959
1020.16	0.105003
1029.8	0.138711
1039.44	0.0827608
1049.09	0.111236
1058.73	0.0595879
1068.37	0.0628245
1078.01	0.0674921
1087.65	0.0725638
1097.3	0.077547
1106.94	0.0828426
1116.58	0.0884953
1126.22	0.0935832
1135.87	0.0983734
1145.51	0.104017
1155.15	0.110271
1164.79	0.118178
1174.44	0.128401
1184.08	0.140733
1193.72	0.15456
1203.36	0.168739
1213.01	0.185044
1222.65	0.202972
1232.29	0.223255
1241.93	0.247028
1251.58	0.269808
1261.22	0.295918
1270.86	0.322961
1280.5	0.337724
1290.14	0.334108
1299.79	0.32071
1309.43	0.303293
1319.07	0.2862
1328.71	0.269096
1338.36	0.251721
1348	0.236957
1357.64	0.22594
1367.28	0.215614
1376.92	0.215561
1386.57	0.209881
1396.21	0.201509
1405.85	0.144076
1415.49	0.0972496
1425.14	0.071082
1434.78	0.0551731
1444.42	0.0737747
1454.06	0.0913322
1463.71	0.0371462
1473.35	0.021493
1482.99	0.0182432
1492.63	0.0176041
1502.28	0.0185628
1511.92	0.0199866
1521.56	0.0220072
1531.2	0.0270896
1540.85	0.0299909
1550.49	0.0383563
1560.13	0.0470974
1569.77	0.0637428
1579.41	0.0882154
1589.06	0.124189
1598.7	0.181666
1608.34	0.271564
1617.98	0.292354
1627.63	0.2241
1637.27	0.177847
1646.91	0.177393
1656.55	0.175286
1666.19	0.15101
1675.84	0.113337
1685.48	0.0771388
1695.12	0.0944115
1704.77	0.0565618
1714.41	0.0303433
1724.05	0.027711
1733.69	0.0271735
1743.33	0.0213893
1752.98	0.0176386
1762.62	0.0175899
1772.26	0.0174044
1781.9	0.0191141
1791.55	0.0208093
1801.19	0.0240665
1810.83	0.0283599
1820.47	0.0338281
1830.12	0.0378206
1839.76	0.0401769
1849.4	0.0399229
1859.04	0.038716
1868.68	0.0384936
1878.33	0.0465105
1887.97	0.0560699
1897.61	0.0692398
1907.25	0.0861411
1916.9	0.0950101
1926.54	0.0890313
1936.18	0.0743549
1945.82	0.0594086
1955.46	0.0486412
1965.11	0.0414741
1974.75	0.0384839
1984.39	0.0399009
1994.04	0.0399105
2003.68	0.0387852
2013.32	0.0406989
2022.96	0.0433276
2032.6	0.0465555
2042.25	0.0477704
2051.89	0.047707
2061.53	0.0458179
2071.17	0.0464063
2080.82	0.0454303
2090.46	0.0417732
2100.1	0.0425839
2109.74	0.041657
2119.39	0.0404965
2129.03	0.039397
2138.67	0.0395761
2148.31	0.0402654
2157.95	0.0421566
2167.6	0.0444877
2177.24	0.0442352
2186.88	0.048261
2196.52	0.0472337
2206.17	0.0490378
2215.81	0.0517419
2225.45	0.0528753
2235.09	0.0571027
2244.74	0.059051
2254.38	0.0620324
2264.02	0.0636448
2273.66	0.0649649
2283.3	0.0659638
2292.95	0.0660971
2302.59	0.0678549
2312.23	0.0695336
2321.87	0.073045
2331.52	0.0726703
2341.16	0.0760743
2350.8	0.0800512
2360.44	0.081655
2370.09	0.0868613
2379.73	0.0922729
2389.37	0.0971293
2399.01	0.101015
2408.66	0.105306
2418.3	0.109202
2427.94	0.112275
2437.58	0.115056
2447.22	0.116603
2456.87	0.116956
2466.51	0.117074
2476.15	0.11676
2485.79	0.116829
2495.44	0.115779
2505.08	0.116855
2514.72	0.116349
2524.36	0.116489
2534.01	0.116556
2543.65	0.115062
2553.29	0.112227
2562.93	0.106735
2572.57	0.101349
2582.22	0.0974887
2591.86	0.0937776
2601.5	0.0919767
2611.14	0.0897658
2620.79	0.0883852
2630.43	0.0856735
2640.07	0.0839021
2649.71	0.0800036
2659.36	0.0770535
2669	0.073494
2678.64	0.069498
2688.28	0.065326
2697.93	0.0612328
2707.57	0.0576518
2717.21	0.0544829
2726.85	0.0527897
2736.49	0.0523393
2746.14	0.0516785
2755.78	0.05043
2765.42	0.048178
2775.06	0.0462982
2784.71	0.0441595
2794.35	0.0435539
2803.99	0.0442917
2813.63	0.044372
2823.28	0.0460355
2832.92	0.0478418
2842.56	0.0499357
2852.2	0.0511888
2861.84	0.0529746
2871.49	0.0548368
2881.13	0.0563734
2890.77	0.0577358
2900.41	0.0579213
2910.06	0.0578556
2919.7	0.0575324
2929.34	0.0544523
2938.98	0.04913
2948.62	0.0452398
2958.27	0.0419823
2967.91	0.0389335
2977.55	0.0362739
2987.2	0.033551
2996.84	0.0321622
3006.48	0.031314
3016.12	0.0305983
3025.76	0.0307738
3035.41	0.0314699
3045.05	0.0315231
3054.69	0.0309038
3064.33	0.032113
3073.98	0.0305216
3083.62	0.0297698
3093.26	0.0284531
3102.9	0.025931
3112.55	0.0241013
3122.19	0.0225694
3131.83	0.0207078
3141.47	0.0187484
3151.11	0.0170247
3160.76	0.0163174
3170.4	0.0139628
3180.04	0.0130579
3189.68	0.0117933
3199.33	0.00989304
3208.97	0.00752672
3218.61	0.00815925
3228.25	0.00616198
3237.9	0.00639733
3247.54	0.00637762
3257.18	0.00547172
3266.82	0.00627931
3276.47	0.00497846
3286.11	0.00523548
3295.75	0.00428499
3305.39	0.00527739
3315.03	0.0039582
3324.68	0.0042645
3334.32	0.00432478
3343.96	0.0042292
3353.6	0.00494513
3363.25	0.00453367
3372.89	0.00532212
3382.53	0.00453021
3392.17	0.0050533
3401.82	0.00379738
3411.46	0.00502102
3421.1	0.00499763
3430.74	0.00596317
3440.39	0.00463195
3450.03	0.00496553
3459.67	0.00476223
3469.31	0.00548596
3478.95	0.00451222
3488.6	0.0055688
3498.24	0.00385548
3507.88	0.00492119
3517.52	0.0044141
3527.17	0.00394501
3536.81	0.00478848
3546.45	0.00383761
3556.09	0.00393673
3565.74	0.00358461
3575.38	0.00425116
3585.02	0.00302626
3594.66	0.00366827
3604.3	0.00349579
3613.95	0.00209096
3623.59	0.00407926
3633.23	0.00264123
3642.87	0.00343996
3652.52	0.00294775
3662.16	0.00399497
3671.8	0.00149546
3681.44	0.00432442
3691.09	0.00265598
3700.73	0.00393326
3710.37	0.00267168
3720.01	0.00298902
3729.66	0.00560097
3739.3	0.00466945
3748.94	-0.00027199
3758.58	0.00400535
3768.22	0.0032428
3777.87	0.00405852
3787.51	0.00397429
3797.15	0.00504871
3806.79	0.00234212
3816.44	0.001071
3826.08	0.00413774
3835.72	0.00291538
3845.36	0.00381519
3855.01	0.00198926
3864.65	0.00321401
3874.29	0.00392301
3883.93	0.00317836
3893.57	0.00366498
3903.22	0.0027431
3912.86	0.00454461
3922.5	0.00420015
3932.14	0.00397025
3941.79	0.00401568
3951.43	0.00395934
3961.07	0.0033704
3970.71	0.00400302
3980.36	0.00291522
3990	0.00489704
3999.64	0.00390551
