Measurement: Infrared, Infrared Data Processed
Mineral: Quartz
Rruff sample: R040031
Ideal chemistry: SiO_2_
Locality: Spruce Claim, King County, Washington, USA
Source: Bob Downs
Description: Colorless hexagonal prism
Measured chemistry: Si_1.00_O_2_
x	intensity
399.193	0
408.835	0.0466531
418.477	0.0965503
428.12	0.143577
437.762	0.185706
447.404	0.22079
457.047	0.235079
466.689	0.196357
476.331	0.158404
485.974	0.127351
495.616	0.0985631
505.258	0.0672608
514.901	0.0708119
524.543	0.0622
534.185	0.0401916
543.828	0.0164398
553.47	0.00592844
563.112	0.00450228
572.755	0.00371511
582.397	0.00386608
592.039	0.00487939
601.682	0.00556233
611.324	0.00691934
620.966	0.00830863
630.609	0.00916247
640.251	0.0104992
649.893	0.0126377
659.536	0.0146703
669.178	0.0180299
678.82	0.0239618
688.463	0.0417577
698.105	0.0497122
707.747	0.0235803
717.39	0.0246567
727.032	0.0287685
736.674	0.0357858
746.317	0.0458357
755.959	0.0639206
765.601	0.0984587
775.244	0.154353
784.886	0.128904
794.528	0.139984
804.171	0.0851984
813.813	0.0261045
823.455	0.0159561
833.098	0.0140994
842.74	0.0152114
852.382	0.0173448
862.025	0.0205664
871.667	0.0242792
881.309	0.0284301
890.952	0.0338766
900.594	0.0398157
910.236	0.0467897
919.879	0.0548314
929.521	0.06463
939.163	0.0747689
948.806	0.0860378
958.448	0.0982268
968.09	0.112657
977.733	0.129142
987.375	0.146717
997.017	0.164486
1006.66	0.182773
1016.3	0.202826
1025.94	0.223273
1035.59	0.244626
1045.23	0.263303
1054.87	0.282117
1064.51	0.277276
1074.16	0.275313
1083.8	0.272923
1093.44	0.249502
1103.08	0.220021
1112.72	0.194684
1122.37	0.172097
1132.01	0.149356
1141.65	0.129637
1151.3	0.109759
1160.94	0.115502
1170.58	0.10068
1180.22	0.078137
1189.86	0.0633314
1199.51	0.0506385
1209.15	0.0367979
1218.79	0.0233098
1228.43	0.0144418
1238.08	0.0110233
1247.72	0.00852391
1257.36	0.00634537
1267	0.00559402
1276.64	0.00504117
1286.29	0.00365275
1295.93	0.00250348
1305.57	0.00128699
1315.21	0.00109388
1324.86	0.000469373
1334.5	0.000200968
1344.14	-0.000282067
1353.78	-0.000371341
1363.43	-0.000677418
1373.07	-0.000562394
1382.71	-0.000888837
1392.35	-0.00107517
1401.99	-0.0010506
1411.64	-0.000728762
1421.28	-0.000470997
1430.92	-0.000644648
1440.57	-0.00053474
1450.21	-0.000670447
1459.85	-0.000355748
1469.49	-0.000165873
1479.13	-5.62702e-05
1488.78	-9.78479e-06
1498.42	2.61137e-05
1508.06	-0.000755147
1517.7	-0.000132495
1527.35	-1.19328e-05
1536.99	-0.000252531
1546.63	-0.000767932
1556.27	-0.000383336
1565.91	-0.000269141
1575.56	0.000357339
1585.2	0.000763781
1594.84	0.00138197
1604.48	0.00224112
1614.13	0.00218403
1623.77	0.00154085
1633.41	0.00095622
1643.05	0.00109113
1652.7	0.000674685
1662.34	0.000637964
1671.98	0.000568284
1681.62	0.0014777
1691.27	0.000561297
1700.91	0.000167199
1710.55	-0.000123843
1720.19	-0.000477907
1729.84	-0.00172412
1739.48	-0.00153945
1749.12	-0.000496402
1758.76	-0.000220338
1768.4	-0.000335319
1778.05	0.000380699
1787.69	0.000292742
1797.33	0.000612244
1806.97	0.000261727
1816.62	-0.000416524
1826.26	-0.000277053
1835.9	3.16661e-05
1845.54	-0.000443517
1855.18	0.0010623
1864.83	0.00167368
1874.47	0.00163717
1884.11	0.00180409
1893.75	0.000585002
1903.4	8.82401e-05
1913.04	-0.00115377
1922.68	-0.000357601
1932.32	-0.00178981
1941.97	-0.00306775
1951.61	-0.00249408
1961.25	-0.00252663
1970.89	-0.00321074
1980.54	-0.00238171
1990.18	-0.00238866
1999.82	-0.00561105
2009.46	-0.00569633
2019.11	-0.00680026
2028.75	-0.00836228
2038.39	-0.00837476
2048.03	-0.00569413
2057.67	-0.00723054
2067.32	-0.00759011
2076.96	-0.00612487
2086.6	-0.0051409
2096.24	-0.00598741
2105.89	-0.00483657
2115.53	-0.00675439
2125.17	-0.00697209
2134.81	-0.00862815
2144.45	-0.0111308
2154.1	-0.0141907
2163.74	-0.0112211
2173.38	-0.0125395
2183.02	-0.0105043
2192.67	-0.00825692
2202.31	-0.00846538
2211.95	-0.00934969
2221.59	-0.00648635
2231.24	-0.00693027
2240.88	-0.00659971
2250.52	-0.00595836
2260.16	-0.00557362
2269.8	-0.00379931
2279.45	-0.00236337
2289.09	-0.00250236
2298.73	-0.000962576
2308.38	-0.00172105
2318.02	-5.96626e-06
2327.66	-0.000654537
2337.3	-0.000762664
2346.94	-0.000495779
2356.59	0.000330748
2366.23	-0.000840574
2375.87	-0.000247553
2385.51	-0.000662699
2395.16	-0.000942877
2404.8	-0.000755161
2414.44	1.31318e-05
2424.08	-0.000650452
2433.72	-0.000638021
2443.37	0.0004491
2453.01	0.00130663
2462.65	-0.000920976
2472.29	0.000191618
2481.94	0.000324034
2491.58	0.0012424
2501.22	-0.000124485
2510.86	-0.000449252
2520.51	0.000247343
2530.15	0.000845811
2539.79	-0.000511481
2549.43	0.000650644
2559.07	0.000534051
2568.72	0.000422473
2578.36	0.000178612
2588	0.000810824
2597.64	0.00120778
2607.29	0.00128894
2616.93	0.00104518
2626.57	0.00103998
2636.21	0.00142022
2645.86	0.000700425
2655.5	0.00114178
2665.14	0.000650376
2674.78	0.000606543
2684.43	0.000538666
2694.07	0.00042319
2703.71	0.000383935
2713.35	-0.000314535
2722.99	0.000281924
2732.64	-0.00032385
2742.28	0.00113618
2751.92	0.000327657
2761.56	-4.90831e-06
2771.21	6.76553e-05
2780.85	0.000547083
2790.49	0.000797602
2800.13	0.00176986
2809.78	0.000872044
2819.42	0.000640394
2829.06	0.000655179
2838.7	7.54471e-05
2848.34	0.00116147
2857.99	0.00203446
2867.63	0.00112184
2877.27	0.00122257
2886.91	0.000750762
2896.56	0.0013153
2906.2	0.000563785
2915.84	0.000877854
2925.48	0.00204771
2935.13	-0.000367187
2944.77	-4.80106e-05
2954.41	-0.000722553
2964.05	-0.000811482
2973.7	-0.00119787
2983.34	7.42961e-05
2992.98	0.00092859
3002.62	0.00231522
3012.26	0.00159209
3021.91	0.000991271
3031.55	0.00112266
3041.19	-4.14507e-05
3050.83	0.000732406
3060.48	0.000147902
3070.12	0.000778297
3079.76	-0.000166414
3089.4	0.00103998
3099.05	0.00121251
3108.69	0.000895129
3118.33	-0.000117931
3127.97	0.00152318
3137.61	0.00130834
3147.26	0.000386916
3156.9	3.43063e-05
3166.54	0.000440109
3176.18	0.000616113
3185.83	0.000949792
3195.47	0.000692914
3205.11	0.00042759
3214.75	0.00134692
3224.4	0.000373281
3234.04	-0.000362749
3243.68	-0.000463573
3253.32	0.000212593
3262.97	-0.00102237
3272.61	9.59352e-05
3282.25	-0.000181439
3291.89	-0.00184259
3301.53	-0.00153633
3311.18	-0.000988079
3320.82	2.82955e-05
3330.46	-0.000568283
3340.1	-0.000447402
3349.75	1.20848e-06
3359.39	0.000403963
3369.03	-0.000427349
3378.67	-0.0021916
3388.32	0.000692393
3397.96	0.000442036
3407.6	-0.000131728
3417.24	5.16577e-05
3426.89	-0.000417633
3436.53	0.000345832
3446.17	0.000473369
3455.81	0.000651263
3465.45	0.000524068
3475.1	-0.000335187
3484.74	0.000323261
3494.38	0.000908638
3504.02	-0.000597195
3513.67	0.000457823
3523.31	0.00233563
3532.95	0.00197938
3542.59	0.000702093
3552.24	3.49983e-05
3561.88	0.000691474
3571.52	0.00153347
3581.16	0.00149592
3590.8	0.00153187
3600.45	-0.000218498
3610.09	-0.000510615
3619.73	0.000767227
3629.37	0.000212287
3639.02	-0.000231206
3648.66	-0.0011583
3658.3	0.00139924
3667.94	0.000268197
3677.59	0.000933414
3687.23	-0.00200677
3696.87	-0.0021875
3706.51	-0.00125235
3716.16	0.00209623
3725.8	0.00114194
3735.44	-0.000482161
3745.08	0.00246158
3754.72	0.00125127
3764.37	0.000841292
3774.01	-0.00100836
3783.65	0.000880494
3793.29	0.000848861
3802.94	0.00160452
3812.58	0.0017559
3822.22	0.00134193
3831.86	0.000766752
3841.51	0.00146494
3851.15	0.0038025
3860.79	0.00197914
3870.43	-0.00124842
3880.07	0.00104094
3889.72	0.00201665
3899.36	0.00100224
3909	0.000849852
3918.64	9.49028e-05
3928.29	0.00226074
3937.93	0.00115126
3947.57	0.0013324
3957.21	0.00313194
3966.86	0.00078795
3976.5	0.00118147
3986.14	0.00438512
3995.78	0.000722855
