Measurement: Infrared, Infrared Data Processed
Mineral: Sylvite
Rruff sample: R050166
Ideal chemistry: KCl
Locality: Salton Sea, Imperial County, California, USA
Source: Marcus Origlieri
Description: Pale blue octahedral crystals
x	intensity
374.123	-0.00784995
383.765	0.00353807
393.407	-0.00221089
403.05	0.00257006
412.692	0.000863081
422.334	0.00106561
431.976	0.00233455
441.619	0.00119381
451.261	0.00136881
460.904	0.00223588
470.546	0.00187715
480.188	0.00243634
489.83	0.00170619
499.473	0.00200536
509.115	0.00213626
518.758	0.00275792
528.4	0.00250303
538.042	0.0029951
547.684	0.00268386
557.327	0.00282322
566.969	0.00254083
576.611	0.00293111
586.254	0.00285463
595.896	0.00280981
605.538	0.00323214
615.181	0.00307702
624.823	0.00340433
634.466	0.00353241
644.108	0.00354396
653.75	0.00375055
663.393	0.00385995
673.035	0.00418627
682.677	0.00386125
692.319	0.0039926
701.962	0.0040336
711.604	0.00403219
721.246	0.00378479
730.889	0.00396248
740.531	0.00376951
750.173	0.00404844
759.816	0.0041108
769.458	0.00426908
779.101	0.00444308
788.743	0.00454057
798.385	0.00450048
808.028	0.00455401
817.67	0.00463227
827.312	0.00471797
836.955	0.00467713
846.597	0.00469248
856.239	0.00504136
865.881	0.00485433
875.524	0.00508954
885.166	0.00524334
894.808	0.00521171
904.451	0.00506518
914.093	0.00532467
923.736	0.00533658
933.378	0.00536361
943.02	0.00556684
952.663	0.00559701
962.305	0.00555504
971.947	0.00582713
981.59	0.00597434
991.232	0.00607347
1000.87	0.00596465
1010.52	0.0063708
1020.16	0.00684138
1029.8	0.00640192
1039.44	0.00624988
1049.09	0.00643779
1058.73	0.006098
1068.37	0.00608919
1078.01	0.00613901
1087.65	0.00612882
1097.3	0.00611185
1106.94	0.00607948
1116.58	0.00586814
1126.22	0.00575862
1135.87	0.00571098
1145.51	0.00548342
1155.15	0.00465906
1164.79	0.00440502
1174.44	0.00471764
1184.08	0.00510665
1193.72	0.00542487
1203.36	0.00578999
1213.01	0.00594787
1222.65	0.00584764
1232.29	0.00589387
1241.93	0.00597807
1251.58	0.00606406
1261.22	0.00637978
1270.86	0.00641168
1280.5	0.0067431
1290.14	0.00685831
1299.79	0.00683763
1309.43	0.00726035
1319.07	0.00742507
1328.71	0.00748381
1338.36	0.00754432
1348	0.00771022
1357.64	0.00775257
1367.28	0.00786134
1376.92	0.0083156
1386.57	0.00897239
1396.21	0.0106975
1405.85	0.0124522
1415.49	0.0113539
1425.14	0.00983683
1434.78	0.00910325
1444.42	0.00856801
1454.06	0.00813634
1463.71	0.00809996
1473.35	0.0083575
1482.99	0.00870788
1492.63	0.00888522
1502.28	0.00882863
1511.92	0.00906153
1521.56	0.0091847
1531.2	0.00926934
1540.85	0.0097157
1550.49	0.0095452
1560.13	0.00995521
1569.77	0.009821
1579.41	0.00994886
1589.06	0.00967644
1598.7	0.0101236
1608.34	0.0100079
1617.98	0.0103995
1627.63	0.0104775
1637.27	0.0105506
1646.91	0.0104313
1656.55	0.0105556
1666.19	0.0102552
1675.84	0.0102735
1685.48	0.0100193
1695.12	0.0101433
1704.77	0.00960359
1714.41	0.0096094
1724.05	0.00778871
1733.69	0.00510892
1743.33	0.00686301
1752.98	0.00914155
1762.62	0.0096005
1772.26	0.00975458
1781.9	0.0101598
1791.55	0.00988778
1801.19	0.0100829
1810.83	0.010222
1820.47	0.0104016
1830.12	0.0103935
1839.76	0.0102536
1849.4	0.0104243
1859.04	0.00999172
1868.68	0.0113281
1878.33	0.0106416
1887.97	0.011007
1897.61	0.0105488
1907.25	0.0109226
1916.9	0.010612
1926.54	0.0104897
1936.18	0.0116539
1945.82	0.0110592
1955.46	0.0105045
1965.11	0.010549
1974.75	0.0110065
1984.39	0.011969
1994.04	0.0102348
2003.68	0.00967031
2013.32	0.0109154
2022.96	0.0113348
2032.6	0.0113401
2042.25	0.0113542
2051.89	0.0108032
2061.53	0.010933
2071.17	0.0112821
2080.82	0.0125075
2090.46	0.0118025
2100.1	0.0113626
2109.74	0.0122049
2119.39	0.0118538
2129.03	0.0108131
2138.67	0.0114264
2148.31	0.0110776
2157.95	0.0122899
2167.6	0.0136914
2177.24	0.0133723
2186.88	0.0120326
2196.52	0.0125508
2206.17	0.0128753
2215.81	0.0128114
2225.45	0.0118052
2235.09	0.012445
2244.74	0.0119559
2254.38	0.0129659
2264.02	0.0130596
2273.66	0.0128714
2283.3	0.0141158
2292.95	0.0138487
2302.59	0.0137128
2312.23	0.0135672
2321.87	0.0138924
2331.52	0.012898
2341.16	0.0128808
2350.8	0.0134758
2360.44	0.0129405
2370.09	0.013354
2379.73	0.0131908
2389.37	0.0134994
2399.01	0.0137769
2408.66	0.014358
2418.3	0.0141358
2427.94	0.0139024
2437.58	0.0146565
2447.22	0.0141863
2456.87	0.014445
2466.51	0.0141289
2476.15	0.0139184
2485.79	0.0143124
2495.44	0.0137597
2505.08	0.0140581
2514.72	0.0138708
2524.36	0.0151729
2534.01	0.0144209
2543.65	0.0150122
2553.29	0.015629
2562.93	0.0153486
2572.57	0.0153128
2582.22	0.0148817
2591.86	0.0150225
2601.5	0.0147005
2611.14	0.0148333
2620.79	0.0155423
2630.43	0.0152988
2640.07	0.0156141
2649.71	0.0153452
2659.36	0.0154153
2669	0.0148027
2678.64	0.0150145
2688.28	0.0153628
2697.93	0.0153673
2707.57	0.0155189
2717.21	0.015721
2726.85	0.0159594
2736.49	0.01593
2746.14	0.016014
2755.78	0.0158742
2765.42	0.0161117
2775.06	0.0162814
2784.71	0.0163106
2794.35	0.0163743
2803.99	0.0164631
2813.63	0.016796
2823.28	0.0166752
2832.92	0.0162854
2842.56	0.0167372
2852.2	0.0172326
2861.84	0.0161117
2871.49	0.0153171
2881.13	0.015964
2890.77	0.0160676
2900.41	0.0163788
2910.06	0.0166167
2919.7	0.0173297
2929.34	0.0160625
2938.98	0.0160523
2948.62	0.0141977
2958.27	0.0129316
2967.91	0.0145776
2977.55	0.0161876
2987.2	0.0173652
2996.84	0.0180719
3006.48	0.0192193
3016.12	0.0180202
3025.76	0.0180191
3035.41	0.0187449
3045.05	0.0188513
3054.69	0.0195302
3064.33	0.0197679
3073.98	0.0203753
3083.62	0.0197308
3093.26	0.0208878
3102.9	0.021212
3112.55	0.0221846
3122.19	0.0210655
3131.83	0.0212952
3141.47	0.0217335
3151.11	0.0203428
3160.76	0.0211867
3170.4	0.0206756
3180.04	0.0215412
3189.68	0.0203303
3199.33	0.0212994
3208.97	0.0200939
3218.61	0.0198223
3228.25	0.0215566
3237.9	0.0212183
3247.54	0.0202215
3257.18	0.020637
3266.82	0.0214744
3276.47	0.0199469
3286.11	0.0206703
3295.75	0.020172
3305.39	0.0200862
3315.03	0.0201757
3324.68	0.0203064
3334.32	0.0194178
3343.96	0.0193585
3353.6	0.0193756
3363.25	0.019944
3372.89	0.0202687
3382.53	0.0190946
3392.17	0.019553
3401.82	0.0199724
3411.46	0.0199246
3421.1	0.0197923
3430.74	0.0191341
3440.39	0.0197846
3450.03	0.0193027
3459.67	0.0207312
3469.31	0.0202353
3478.95	0.019987
3488.6	0.0204319
3498.24	0.0207949
3507.88	0.0202299
3517.52	0.0205569
3527.17	0.0195654
3536.81	0.0204422
3546.45	0.0199309
3556.09	0.0197238
3565.74	0.0209598
3575.38	0.0207912
3585.02	0.0211607
3594.66	0.0207841
3604.3	0.0205378
3613.95	0.0201431
3623.59	0.021053
3633.23	0.0208313
3642.87	0.0197794
3652.52	0.0206116
3662.16	0.0202111
3671.8	0.0206612
3681.44	0.0226945
3691.09	0.0207412
3700.73	0.0211384
3710.37	0.0215162
3720.01	0.0206389
3729.66	0.0211766
3739.3	0.0218948
3748.94	0.022921
3758.58	0.0210177
3768.22	0.0217455
3777.87	0.0218812
3787.51	0.022402
3797.15	0.0221989
3806.79	0.0224279
3816.44	0.0231297
3826.08	0.0216579
3835.72	0.0232984
3845.36	0.0217823
3855.01	0.0227309
3864.65	0.0228943
3874.29	0.023156
3883.93	0.0216603
3893.57	0.0243871
3903.22	0.0234655
3912.86	0.0231629
3922.5	0.0221393
3932.14	0.0218193
3941.79	0.0224408
3951.43	0.0221021
3961.07	0.0222039
3970.71	0.0245221
3980.36	0.0229086
3990	0.0229531
3999.64	0.0237919
